New "Circuit.IJAU11" basekv=13.8 pu=1.0399999618530273 bus1="121959632" r1=0.0 x1=0.0001
