New "Linecode.0_1_1_1" nphases=1 basefreq=60 r1=0.1500 x1=0.0890 units=km normamps=290.00
New "Linecode.0_1_1_2" nphases=2 basefreq=60 r1=0.1500 x1=0.0890 units=km normamps=290.00
New "Linecode.0_1_1_3" nphases=3 basefreq=60 r1=0.1500 x1=0.0890 units=km normamps=290.00
New "Linecode.0_1_1_4" nphases=4 basefreq=60 r1=0.1500 x1=0.0890 units=km normamps=290.00

New "Linecode.0_1_1" nphases=1 basefreq=60 r1=0.1500 x1=0.0890 units=km normamps=290.00
New "Linecode.0_1_2" nphases=2 basefreq=60 r1=0.1500 x1=0.0890 units=km normamps=290.00
New "Linecode.0_1_3" nphases=3 basefreq=60 r1=0.1500 x1=0.0890 units=km normamps=290.00
New "Linecode.0_1_4" nphases=4 basefreq=60 r1=0.1500 x1=0.0890 units=km normamps=290.00

New "Linecode.0_2_1" nphases=1 basefreq=60 r1=0.1500 x1=0.0890 units=km normamps=290.00
New "Linecode.0_2_2" nphases=2 basefreq=60 r1=0.1500 x1=0.0890 units=km normamps=290.00
New "Linecode.0_2_3" nphases=3 basefreq=60 r1=0.1500 x1=0.0890 units=km normamps=290.00
New "Linecode.0_2_4" nphases=4 basefreq=60 r1=0.1500 x1=0.0890 units=km normamps=290.00

New "Linecode.0_3_1" nphases=1 basefreq=60 r1=0.1500 x1=0.0890 units=km normamps=290.00
New "Linecode.0_3_2" nphases=2 basefreq=60 r1=0.1500 x1=0.0890 units=km normamps=290.00
New "Linecode.0_3_3" nphases=3 basefreq=60 r1=0.1500 x1=0.0890 units=km normamps=290.00
New "Linecode.0_3_4" nphases=4 basefreq=60 r1=0.1500 x1=0.0890 units=km normamps=290.00

New "Linecode.0_4_1" nphases=1 basefreq=60 r1=0.1500 x1=0.0890 units=km normamps=290.00
New "Linecode.0_4_2" nphases=2 basefreq=60 r1=0.1500 x1=0.0890 units=km normamps=290.00
New "Linecode.0_4_3" nphases=3 basefreq=60 r1=0.1500 x1=0.0890 units=km normamps=290.00
New "Linecode.0_4_4" nphases=4 basefreq=60 r1=0.1500 x1=0.0890 units=km normamps=290.00

New "Linecode.0_5_1" nphases=1 basefreq=60 r1=0.1500 x1=0.0890 units=km normamps=290.00
New "Linecode.0_5_2" nphases=2 basefreq=60 r1=0.1500 x1=0.0890 units=km normamps=290.00
New "Linecode.0_5_3" nphases=3 basefreq=60 r1=0.1500 x1=0.0890 units=km normamps=290.00
New "Linecode.0_5_4" nphases=4 basefreq=60 r1=0.1500 x1=0.0890 units=km normamps=290.00

New "Linecode.1061_1" nphases=1 basefreq=60 r1=0.1500 x1=0.0890 units=km normamps=290.00
New "Linecode.1061_2" nphases=2 basefreq=60 r1=0.1500 x1=0.0890 units=km normamps=290.00
New "Linecode.1061_3" nphases=3 basefreq=60 r1=0.1500 x1=0.0890 units=km normamps=290.00
New "Linecode.1061_4" nphases=4 basefreq=60 r1=0.1500 x1=0.0890 units=km normamps=290.00

New "Linecode.109_1" nphases=1 basefreq=60 r1=0.1500 x1=0.0890 units=km normamps=290.00
New "Linecode.109_2" nphases=2 basefreq=60 r1=0.1500 x1=0.0890 units=km normamps=290.00
New "Linecode.109_3" nphases=3 basefreq=60 r1=0.1500 x1=0.0890 units=km normamps=290.00
New "Linecode.109_4" nphases=4 basefreq=60 r1=0.1500 x1=0.0890 units=km normamps=290.00

New "Linecode.110_1" nphases=1 basefreq=60 r1=0.1500 x1=0.0890 units=km normamps=290.00
New "Linecode.110_2" nphases=2 basefreq=60 r1=0.1500 x1=0.0890 units=km normamps=290.00
New "Linecode.110_3" nphases=3 basefreq=60 r1=0.1500 x1=0.0890 units=km normamps=290.00
New "Linecode.110_4" nphases=4 basefreq=60 r1=0.1500 x1=0.0890 units=km normamps=290.00

New "Linecode.112_1" nphases=1 basefreq=60 r1=0.1500 x1=0.0890 units=km normamps=290.00
New "Linecode.112_2" nphases=2 basefreq=60 r1=0.1500 x1=0.0890 units=km normamps=290.00
New "Linecode.112_3" nphases=3 basefreq=60 r1=0.1500 x1=0.0890 units=km normamps=290.00
New "Linecode.112_4" nphases=4 basefreq=60 r1=0.1500 x1=0.0890 units=km normamps=290.00

New "Linecode.1129_1" nphases=1 basefreq=60 r1=0.1500 x1=0.0890 units=km normamps=290.00
New "Linecode.1129_2" nphases=2 basefreq=60 r1=0.1500 x1=0.0890 units=km normamps=290.00
New "Linecode.1129_3" nphases=3 basefreq=60 r1=0.1500 x1=0.0890 units=km normamps=290.00
New "Linecode.1129_4" nphases=4 basefreq=60 r1=0.1500 x1=0.0890 units=km normamps=290.00

New "Linecode.118_1" nphases=1 basefreq=60 r1=0.1500 x1=0.0890 units=km normamps=290.00
New "Linecode.118_2" nphases=2 basefreq=60 r1=0.1500 x1=0.0890 units=km normamps=290.00
New "Linecode.118_3" nphases=3 basefreq=60 r1=0.1500 x1=0.0890 units=km normamps=290.00
New "Linecode.118_4" nphases=4 basefreq=60 r1=0.1500 x1=0.0890 units=km normamps=290.00

New "Linecode.121_1" nphases=1 basefreq=60 r1=0.1500 x1=0.0890 units=km normamps=290.00
New "Linecode.121_2" nphases=2 basefreq=60 r1=0.1500 x1=0.0890 units=km normamps=290.00
New "Linecode.121_3" nphases=3 basefreq=60 r1=0.1500 x1=0.0890 units=km normamps=290.00
New "Linecode.121_4" nphases=4 basefreq=60 r1=0.1500 x1=0.0890 units=km normamps=290.00

New "Linecode.122_1" nphases=1 basefreq=60 r1=0.1500 x1=0.0890 units=km normamps=290.00
New "Linecode.122_2" nphases=2 basefreq=60 r1=0.1500 x1=0.0890 units=km normamps=290.00
New "Linecode.122_3" nphases=3 basefreq=60 r1=0.1500 x1=0.0890 units=km normamps=290.00
New "Linecode.122_4" nphases=4 basefreq=60 r1=0.1500 x1=0.0890 units=km normamps=290.00

New "Linecode.123_1" nphases=1 basefreq=60 r1=0.1500 x1=0.0890 units=km normamps=290.00
New "Linecode.123_2" nphases=2 basefreq=60 r1=0.1500 x1=0.0890 units=km normamps=290.00
New "Linecode.123_3" nphases=3 basefreq=60 r1=0.1500 x1=0.0890 units=km normamps=290.00
New "Linecode.123_4" nphases=4 basefreq=60 r1=0.1500 x1=0.0890 units=km normamps=290.00

New "Linecode.124_1" nphases=1 basefreq=60 r1=0.1500 x1=0.0890 units=km normamps=290.00
New "Linecode.124_2" nphases=2 basefreq=60 r1=0.1500 x1=0.0890 units=km normamps=290.00
New "Linecode.124_3" nphases=3 basefreq=60 r1=0.1500 x1=0.0890 units=km normamps=290.00
New "Linecode.124_4" nphases=4 basefreq=60 r1=0.1500 x1=0.0890 units=km normamps=290.00

New "Linecode.128_1" nphases=1 basefreq=60 r1=0.1500 x1=0.0890 units=km normamps=290.00
New "Linecode.128_2" nphases=2 basefreq=60 r1=0.1500 x1=0.0890 units=km normamps=290.00
New "Linecode.128_3" nphases=3 basefreq=60 r1=0.1500 x1=0.0890 units=km normamps=290.00
New "Linecode.128_4" nphases=4 basefreq=60 r1=0.1500 x1=0.0890 units=km normamps=290.00

New "Linecode.1283_1" nphases=1 basefreq=60 r1=0.1500 x1=0.0890 units=km normamps=290.00
New "Linecode.1283_2" nphases=2 basefreq=60 r1=0.1500 x1=0.0890 units=km normamps=290.00
New "Linecode.1283_3" nphases=3 basefreq=60 r1=0.1500 x1=0.0890 units=km normamps=290.00
New "Linecode.1283_4" nphases=4 basefreq=60 r1=0.1500 x1=0.0890 units=km normamps=290.00

New "Linecode.131_1" nphases=1 basefreq=60 r1=0.1500 x1=0.0890 units=km normamps=290.00
New "Linecode.131_2" nphases=2 basefreq=60 r1=0.1500 x1=0.0890 units=km normamps=290.00
New "Linecode.131_3" nphases=3 basefreq=60 r1=0.1500 x1=0.0890 units=km normamps=290.00
New "Linecode.131_4" nphases=4 basefreq=60 r1=0.1500 x1=0.0890 units=km normamps=290.00

New "Linecode.133_1" nphases=1 basefreq=60 r1=0.1500 x1=0.0890 units=km normamps=290.00
New "Linecode.133_2" nphases=2 basefreq=60 r1=0.1500 x1=0.0890 units=km normamps=290.00
New "Linecode.133_3" nphases=3 basefreq=60 r1=0.1500 x1=0.0890 units=km normamps=290.00
New "Linecode.133_4" nphases=4 basefreq=60 r1=0.1500 x1=0.0890 units=km normamps=290.00

New "Linecode.152_1" nphases=1 basefreq=60 r1=0.1500 x1=0.0890 units=km normamps=290.00
New "Linecode.152_2" nphases=2 basefreq=60 r1=0.1500 x1=0.0890 units=km normamps=290.00
New "Linecode.152_3" nphases=3 basefreq=60 r1=0.1500 x1=0.0890 units=km normamps=290.00
New "Linecode.152_4" nphases=4 basefreq=60 r1=0.1500 x1=0.0890 units=km normamps=290.00

New "Linecode.153_1" nphases=1 basefreq=60 r1=0.1500 x1=0.0890 units=km normamps=290.00
New "Linecode.153_2" nphases=2 basefreq=60 r1=0.1500 x1=0.0890 units=km normamps=290.00
New "Linecode.153_3" nphases=3 basefreq=60 r1=0.1500 x1=0.0890 units=km normamps=290.00
New "Linecode.153_4" nphases=4 basefreq=60 r1=0.1500 x1=0.0890 units=km normamps=290.00

New "Linecode.1571_1" nphases=1 basefreq=60 r1=0.1500 x1=0.0890 units=km normamps=290.00
New "Linecode.1571_2" nphases=2 basefreq=60 r1=0.1500 x1=0.0890 units=km normamps=290.00
New "Linecode.1571_3" nphases=3 basefreq=60 r1=0.1500 x1=0.0890 units=km normamps=290.00
New "Linecode.1571_4" nphases=4 basefreq=60 r1=0.1500 x1=0.0890 units=km normamps=290.00

New "Linecode.1670_1" nphases=1 basefreq=60 r1=0.1500 x1=0.0890 units=km normamps=290.00
New "Linecode.1670_2" nphases=2 basefreq=60 r1=0.1500 x1=0.0890 units=km normamps=290.00
New "Linecode.1670_3" nphases=3 basefreq=60 r1=0.1500 x1=0.0890 units=km normamps=290.00
New "Linecode.1670_4" nphases=4 basefreq=60 r1=0.1500 x1=0.0890 units=km normamps=290.00

New "Linecode.168_1" nphases=1 basefreq=60 r1=0.1500 x1=0.0890 units=km normamps=290.00
New "Linecode.168_2" nphases=2 basefreq=60 r1=0.1500 x1=0.0890 units=km normamps=290.00
New "Linecode.168_3" nphases=3 basefreq=60 r1=0.1500 x1=0.0890 units=km normamps=290.00
New "Linecode.168_4" nphases=4 basefreq=60 r1=0.1500 x1=0.0890 units=km normamps=290.00

New "Linecode.174_1" nphases=1 basefreq=60 r1=0.1500 x1=0.0890 units=km normamps=290.00
New "Linecode.174_2" nphases=2 basefreq=60 r1=0.1500 x1=0.0890 units=km normamps=290.00
New "Linecode.174_3" nphases=3 basefreq=60 r1=0.1500 x1=0.0890 units=km normamps=290.00
New "Linecode.174_4" nphases=4 basefreq=60 r1=0.1500 x1=0.0890 units=km normamps=290.00

New "Linecode.190_1" nphases=1 basefreq=60 r1=0.1500 x1=0.0890 units=km normamps=290.00
New "Linecode.190_2" nphases=2 basefreq=60 r1=0.1500 x1=0.0890 units=km normamps=290.00
New "Linecode.190_3" nphases=3 basefreq=60 r1=0.1500 x1=0.0890 units=km normamps=290.00
New "Linecode.190_4" nphases=4 basefreq=60 r1=0.1500 x1=0.0890 units=km normamps=290.00

New "Linecode.233_1" nphases=1 basefreq=60 r1=0.1500 x1=0.0890 units=km normamps=290.00
New "Linecode.233_2" nphases=2 basefreq=60 r1=0.1500 x1=0.0890 units=km normamps=290.00
New "Linecode.233_3" nphases=3 basefreq=60 r1=0.1500 x1=0.0890 units=km normamps=290.00
New "Linecode.233_4" nphases=4 basefreq=60 r1=0.1500 x1=0.0890 units=km normamps=290.00

New "Linecode.235_1" nphases=1 basefreq=60 r1=0.1500 x1=0.0890 units=km normamps=290.00
New "Linecode.235_2" nphases=2 basefreq=60 r1=0.1500 x1=0.0890 units=km normamps=290.00
New "Linecode.235_3" nphases=3 basefreq=60 r1=0.1500 x1=0.0890 units=km normamps=290.00
New "Linecode.235_4" nphases=4 basefreq=60 r1=0.1500 x1=0.0890 units=km normamps=290.00

New "Linecode.25_1" nphases=1 basefreq=60 r1=0.1500 x1=0.0890 units=km normamps=290.00
New "Linecode.25_2" nphases=2 basefreq=60 r1=0.1500 x1=0.0890 units=km normamps=290.00
New "Linecode.25_3" nphases=3 basefreq=60 r1=0.1500 x1=0.0890 units=km normamps=290.00
New "Linecode.25_4" nphases=4 basefreq=60 r1=0.1500 x1=0.0890 units=km normamps=290.00

New "Linecode.394_1" nphases=1 basefreq=60 r1=0.1500 x1=0.0890 units=km normamps=290.00
New "Linecode.394_2" nphases=2 basefreq=60 r1=0.1500 x1=0.0890 units=km normamps=290.00
New "Linecode.394_3" nphases=3 basefreq=60 r1=0.1500 x1=0.0890 units=km normamps=290.00
New "Linecode.394_4" nphases=4 basefreq=60 r1=0.1500 x1=0.0890 units=km normamps=290.00

New "Linecode.429_1" nphases=1 basefreq=60 r1=0.1500 x1=0.0890 units=km normamps=290.00
New "Linecode.429_2" nphases=2 basefreq=60 r1=0.1500 x1=0.0890 units=km normamps=290.00
New "Linecode.429_3" nphases=3 basefreq=60 r1=0.1500 x1=0.0890 units=km normamps=290.00
New "Linecode.429_4" nphases=4 basefreq=60 r1=0.1500 x1=0.0890 units=km normamps=290.00

New "Linecode.776_1" nphases=1 basefreq=60 r1=0.1500 x1=0.0890 units=km normamps=290.00
New "Linecode.776_2" nphases=2 basefreq=60 r1=0.1500 x1=0.0890 units=km normamps=290.00
New "Linecode.776_3" nphases=3 basefreq=60 r1=0.1500 x1=0.0890 units=km normamps=290.00
New "Linecode.776_4" nphases=4 basefreq=60 r1=0.1500 x1=0.0890 units=km normamps=290.00

New "Linecode.784_1" nphases=1 basefreq=60 r1=0.1500 x1=0.0890 units=km normamps=290.00
New "Linecode.784_2" nphases=2 basefreq=60 r1=0.1500 x1=0.0890 units=km normamps=290.00
New "Linecode.784_3" nphases=3 basefreq=60 r1=0.1500 x1=0.0890 units=km normamps=290.00
New "Linecode.784_4" nphases=4 basefreq=60 r1=0.1500 x1=0.0890 units=km normamps=290.00

New "Linecode.847_1" nphases=1 basefreq=60 r1=0.1500 x1=0.0890 units=km normamps=290.00
New "Linecode.847_2" nphases=2 basefreq=60 r1=0.1500 x1=0.0890 units=km normamps=290.00
New "Linecode.847_3" nphases=3 basefreq=60 r1=0.1500 x1=0.0890 units=km normamps=290.00
New "Linecode.847_4" nphases=4 basefreq=60 r1=0.1500 x1=0.0890 units=km normamps=290.00

New "Linecode.BT_BT001_7_0_1_1" nphases=1 basefreq=60 r1=3.9216 x1=0.4211 units=km normamps=42.90
New "Linecode.BT_BT001_7_0_1_2" nphases=2 basefreq=60 r1=3.9216 x1=0.4211 units=km normamps=42.90
New "Linecode.BT_BT001_7_0_1_3" nphases=3 basefreq=60 r1=3.9216 x1=0.4211 units=km normamps=42.90
New "Linecode.BT_BT001_7_0_1_4" nphases=4 basefreq=60 r1=3.9216 x1=0.4211 units=km normamps=42.90

New "Linecode.BT_BT002_7_0_1_1" nphases=1 basefreq=60 r1=2.5303 x1=0.3983 units=km normamps=91.00
New "Linecode.BT_BT002_7_0_1_2" nphases=2 basefreq=60 r1=2.5303 x1=0.3983 units=km normamps=91.00
New "Linecode.BT_BT002_7_0_1_3" nphases=3 basefreq=60 r1=2.5303 x1=0.3983 units=km normamps=91.00
New "Linecode.BT_BT002_7_0_1_4" nphases=4 basefreq=60 r1=2.5303 x1=0.3983 units=km normamps=91.00

New "Linecode.BT_BT003_5_0_1_1" nphases=1 basefreq=60 r1=1.5896 x1=0.3750 units=km normamps=98.80
New "Linecode.BT_BT003_5_0_1_2" nphases=2 basefreq=60 r1=1.5896 x1=0.3750 units=km normamps=98.80
New "Linecode.BT_BT003_5_0_1_3" nphases=3 basefreq=60 r1=1.5896 x1=0.3750 units=km normamps=98.80
New "Linecode.BT_BT003_5_0_1_4" nphases=4 basefreq=60 r1=1.5896 x1=0.3750 units=km normamps=98.80

New "Linecode.BT_BT003_7_0_1_1" nphases=1 basefreq=60 r1=1.5896 x1=0.3750 units=km normamps=98.80
New "Linecode.BT_BT003_7_0_1_2" nphases=2 basefreq=60 r1=1.5896 x1=0.3750 units=km normamps=98.80
New "Linecode.BT_BT003_7_0_1_3" nphases=3 basefreq=60 r1=1.5896 x1=0.3750 units=km normamps=98.80
New "Linecode.BT_BT003_7_0_1_4" nphases=4 basefreq=60 r1=1.5896 x1=0.3750 units=km normamps=98.80

New "Linecode.BT_BT004_5_0_1_1" nphases=1 basefreq=60 r1=1.2278 x1=0.3791 units=km normamps=120.90
New "Linecode.BT_BT004_5_0_1_2" nphases=2 basefreq=60 r1=1.2278 x1=0.3791 units=km normamps=120.90
New "Linecode.BT_BT004_5_0_1_3" nphases=3 basefreq=60 r1=1.2278 x1=0.3791 units=km normamps=120.90
New "Linecode.BT_BT004_5_0_1_4" nphases=4 basefreq=60 r1=1.2278 x1=0.3791 units=km normamps=120.90

New "Linecode.BT_BT004_7_0_1_1" nphases=1 basefreq=60 r1=1.2278 x1=0.3791 units=km normamps=120.90
New "Linecode.BT_BT004_7_0_1_2" nphases=2 basefreq=60 r1=1.2278 x1=0.3791 units=km normamps=120.90
New "Linecode.BT_BT004_7_0_1_3" nphases=3 basefreq=60 r1=1.2278 x1=0.3791 units=km normamps=120.90
New "Linecode.BT_BT004_7_0_1_4" nphases=4 basefreq=60 r1=1.2278 x1=0.3791 units=km normamps=120.90

New "Linecode.BT_BT005_7_0_1_1" nphases=1 basefreq=60 r1=0.7726 x1=0.3546 units=km normamps=131.30
New "Linecode.BT_BT005_7_0_1_2" nphases=2 basefreq=60 r1=0.7726 x1=0.3546 units=km normamps=131.30
New "Linecode.BT_BT005_7_0_1_3" nphases=3 basefreq=60 r1=0.7726 x1=0.3546 units=km normamps=131.30
New "Linecode.BT_BT005_7_0_1_4" nphases=4 basefreq=60 r1=0.7726 x1=0.3546 units=km normamps=131.30

New "Linecode.BT_BT006_5_0_1_1" nphases=1 basefreq=60 r1=1.0019 x1=0.3634 units=km normamps=176.80
New "Linecode.BT_BT006_5_0_1_2" nphases=2 basefreq=60 r1=1.0019 x1=0.3634 units=km normamps=176.80
New "Linecode.BT_BT006_5_0_1_3" nphases=3 basefreq=60 r1=1.0019 x1=0.3634 units=km normamps=176.80
New "Linecode.BT_BT006_5_0_1_4" nphases=4 basefreq=60 r1=1.0019 x1=0.3634 units=km normamps=176.80

New "Linecode.BT_BT006_7_0_1_1" nphases=1 basefreq=60 r1=1.0019 x1=0.3634 units=km normamps=176.80
New "Linecode.BT_BT006_7_0_1_2" nphases=2 basefreq=60 r1=1.0019 x1=0.3634 units=km normamps=176.80
New "Linecode.BT_BT006_7_0_1_3" nphases=3 basefreq=60 r1=1.0019 x1=0.3634 units=km normamps=176.80
New "Linecode.BT_BT006_7_0_1_4" nphases=4 basefreq=60 r1=1.0019 x1=0.3634 units=km normamps=176.80

New "Linecode.BT_BT007_5_0_1_1" nphases=1 basefreq=60 r1=0.6350 x1=0.3459 units=km normamps=252.20
New "Linecode.BT_BT007_5_0_1_2" nphases=2 basefreq=60 r1=0.6350 x1=0.3459 units=km normamps=252.20
New "Linecode.BT_BT007_5_0_1_3" nphases=3 basefreq=60 r1=0.6350 x1=0.3459 units=km normamps=252.20
New "Linecode.BT_BT007_5_0_1_4" nphases=4 basefreq=60 r1=0.6350 x1=0.3459 units=km normamps=252.20

New "Linecode.BT_BT007_7_0_1_1" nphases=1 basefreq=60 r1=0.6350 x1=0.3459 units=km normamps=252.20
New "Linecode.BT_BT007_7_0_1_2" nphases=2 basefreq=60 r1=0.6350 x1=0.3459 units=km normamps=252.20
New "Linecode.BT_BT007_7_0_1_3" nphases=3 basefreq=60 r1=0.6350 x1=0.3459 units=km normamps=252.20
New "Linecode.BT_BT007_7_0_1_4" nphases=4 basefreq=60 r1=0.6350 x1=0.3459 units=km normamps=252.20

New "Linecode.BT_BT008_5_0_1_1" nphases=1 basefreq=60 r1=0.4047 x1=0.3243 units=km normamps=327.60
New "Linecode.BT_BT008_5_0_1_2" nphases=2 basefreq=60 r1=0.4047 x1=0.3243 units=km normamps=327.60
New "Linecode.BT_BT008_5_0_1_3" nphases=3 basefreq=60 r1=0.4047 x1=0.3243 units=km normamps=327.60
New "Linecode.BT_BT008_5_0_1_4" nphases=4 basefreq=60 r1=0.4047 x1=0.3243 units=km normamps=327.60

New "Linecode.BT_BT008_7_0_1_1" nphases=1 basefreq=60 r1=0.4047 x1=0.3243 units=km normamps=327.60
New "Linecode.BT_BT008_7_0_1_2" nphases=2 basefreq=60 r1=0.4047 x1=0.3243 units=km normamps=327.60
New "Linecode.BT_BT008_7_0_1_3" nphases=3 basefreq=60 r1=0.4047 x1=0.3243 units=km normamps=327.60
New "Linecode.BT_BT008_7_0_1_4" nphases=4 basefreq=60 r1=0.4047 x1=0.3243 units=km normamps=327.60

New "Linecode.BT_BT009_5_0_1_1" nphases=1 basefreq=60 r1=0.3208 x1=0.3154 units=km normamps=380.90
New "Linecode.BT_BT009_5_0_1_2" nphases=2 basefreq=60 r1=0.3208 x1=0.3154 units=km normamps=380.90
New "Linecode.BT_BT009_5_0_1_3" nphases=3 basefreq=60 r1=0.3208 x1=0.3154 units=km normamps=380.90
New "Linecode.BT_BT009_5_0_1_4" nphases=4 basefreq=60 r1=0.3208 x1=0.3154 units=km normamps=380.90

New "Linecode.BT_BT009_7_0_1_1" nphases=1 basefreq=60 r1=0.3208 x1=0.3154 units=km normamps=380.90
New "Linecode.BT_BT009_7_0_1_2" nphases=2 basefreq=60 r1=0.3208 x1=0.3154 units=km normamps=380.90
New "Linecode.BT_BT009_7_0_1_3" nphases=3 basefreq=60 r1=0.3208 x1=0.3154 units=km normamps=380.90
New "Linecode.BT_BT009_7_0_1_4" nphases=4 basefreq=60 r1=0.3208 x1=0.3154 units=km normamps=380.90

New "Linecode.BT_BT010_5_0_1_1" nphases=1 basefreq=60 r1=0.2551 x1=0.2989 units=km normamps=439.40
New "Linecode.BT_BT010_5_0_1_2" nphases=2 basefreq=60 r1=0.2551 x1=0.2989 units=km normamps=439.40
New "Linecode.BT_BT010_5_0_1_3" nphases=3 basefreq=60 r1=0.2551 x1=0.2989 units=km normamps=439.40
New "Linecode.BT_BT010_5_0_1_4" nphases=4 basefreq=60 r1=0.2551 x1=0.2989 units=km normamps=439.40

New "Linecode.BT_BT010_7_0_1_1" nphases=1 basefreq=60 r1=0.2551 x1=0.2989 units=km normamps=439.40
New "Linecode.BT_BT010_7_0_1_2" nphases=2 basefreq=60 r1=0.2551 x1=0.2989 units=km normamps=439.40
New "Linecode.BT_BT010_7_0_1_3" nphases=3 basefreq=60 r1=0.2551 x1=0.2989 units=km normamps=439.40
New "Linecode.BT_BT010_7_0_1_4" nphases=4 basefreq=60 r1=0.2551 x1=0.2989 units=km normamps=439.40

New "Linecode.BT_BT011_5_0_1_1" nphases=1 basefreq=60 r1=0.2027 x1=0.2979 units=km normamps=512.20
New "Linecode.BT_BT011_5_0_1_2" nphases=2 basefreq=60 r1=0.2027 x1=0.2979 units=km normamps=512.20
New "Linecode.BT_BT011_5_0_1_3" nphases=3 basefreq=60 r1=0.2027 x1=0.2979 units=km normamps=512.20
New "Linecode.BT_BT011_5_0_1_4" nphases=4 basefreq=60 r1=0.2027 x1=0.2979 units=km normamps=512.20

New "Linecode.BT_BT011_7_0_1_1" nphases=1 basefreq=60 r1=0.2027 x1=0.2979 units=km normamps=512.20
New "Linecode.BT_BT011_7_0_1_2" nphases=2 basefreq=60 r1=0.2027 x1=0.2979 units=km normamps=512.20
New "Linecode.BT_BT011_7_0_1_3" nphases=3 basefreq=60 r1=0.2027 x1=0.2979 units=km normamps=512.20
New "Linecode.BT_BT011_7_0_1_4" nphases=4 basefreq=60 r1=0.2027 x1=0.2979 units=km normamps=512.20

New "Linecode.BT_BT101_7_0_1_1" nphases=1 basefreq=60 r1=6.4025 x1=0.4042 units=km normamps=62.40
New "Linecode.BT_BT101_7_0_1_2" nphases=2 basefreq=60 r1=6.4025 x1=0.4042 units=km normamps=62.40
New "Linecode.BT_BT101_7_0_1_3" nphases=3 basefreq=60 r1=6.4025 x1=0.4042 units=km normamps=62.40
New "Linecode.BT_BT101_7_0_1_4" nphases=4 basefreq=60 r1=6.4025 x1=0.4042 units=km normamps=62.40

New "Linecode.BT_BT102_7_0_1_1" nphases=1 basefreq=60 r1=4.0409 x1=0.3983 units=km normamps=83.20
New "Linecode.BT_BT102_7_0_1_2" nphases=2 basefreq=60 r1=4.0409 x1=0.3983 units=km normamps=83.20
New "Linecode.BT_BT102_7_0_1_3" nphases=3 basefreq=60 r1=4.0409 x1=0.3983 units=km normamps=83.20
New "Linecode.BT_BT102_7_0_1_4" nphases=4 basefreq=60 r1=4.0409 x1=0.3983 units=km normamps=83.20

New "Linecode.BT_BT103_7_0_1_1" nphases=1 basefreq=60 r1=2.5676 x1=0.3581 units=km normamps=105.30
New "Linecode.BT_BT103_7_0_1_2" nphases=2 basefreq=60 r1=2.5676 x1=0.3581 units=km normamps=105.30
New "Linecode.BT_BT103_7_0_1_3" nphases=3 basefreq=60 r1=2.5676 x1=0.3581 units=km normamps=105.30
New "Linecode.BT_BT103_7_0_1_4" nphases=4 basefreq=60 r1=2.5676 x1=0.3581 units=km normamps=105.30

New "Linecode.BT_BT104_7_0_1_1" nphases=1 basefreq=60 r1=2.0084 x1=0.3791 units=km normamps=106.60
New "Linecode.BT_BT104_7_0_1_2" nphases=2 basefreq=60 r1=2.0084 x1=0.3791 units=km normamps=106.60
New "Linecode.BT_BT104_7_0_1_3" nphases=3 basefreq=60 r1=2.0084 x1=0.3791 units=km normamps=106.60
New "Linecode.BT_BT104_7_0_1_4" nphases=4 basefreq=60 r1=2.0084 x1=0.3791 units=km normamps=106.60

New "Linecode.BT_BT105_7_0_1_1" nphases=1 basefreq=60 r1=1.2637 x1=0.3377 units=km normamps=131.30
New "Linecode.BT_BT105_7_0_1_2" nphases=2 basefreq=60 r1=1.2637 x1=0.3377 units=km normamps=131.30
New "Linecode.BT_BT105_7_0_1_3" nphases=3 basefreq=60 r1=1.2637 x1=0.3377 units=km normamps=131.30
New "Linecode.BT_BT105_7_0_1_4" nphases=4 basefreq=60 r1=1.2637 x1=0.3377 units=km normamps=131.30

New "Linecode.BT_BT106_5_0_1_1" nphases=1 basefreq=60 r1=1.6118 x1=0.3634 units=km normamps=144.30
New "Linecode.BT_BT106_5_0_1_2" nphases=2 basefreq=60 r1=1.6118 x1=0.3634 units=km normamps=144.30
New "Linecode.BT_BT106_5_0_1_3" nphases=3 basefreq=60 r1=1.6118 x1=0.3634 units=km normamps=144.30
New "Linecode.BT_BT106_5_0_1_4" nphases=4 basefreq=60 r1=1.6118 x1=0.3634 units=km normamps=144.30

New "Linecode.BT_BT106_7_0_1_1" nphases=1 basefreq=60 r1=1.6118 x1=0.3634 units=km normamps=144.30
New "Linecode.BT_BT106_7_0_1_2" nphases=2 basefreq=60 r1=1.6118 x1=0.3634 units=km normamps=144.30
New "Linecode.BT_BT106_7_0_1_3" nphases=3 basefreq=60 r1=1.6118 x1=0.3634 units=km normamps=144.30
New "Linecode.BT_BT106_7_0_1_4" nphases=4 basefreq=60 r1=1.6118 x1=0.3634 units=km normamps=144.30

New "Linecode.BT_BT107_5_0_1_1" nphases=1 basefreq=60 r1=1.0145 x1=0.3290 units=km normamps=193.70
New "Linecode.BT_BT107_5_0_1_2" nphases=2 basefreq=60 r1=1.0145 x1=0.3290 units=km normamps=193.70
New "Linecode.BT_BT107_5_0_1_3" nphases=3 basefreq=60 r1=1.0145 x1=0.3290 units=km normamps=193.70
New "Linecode.BT_BT107_5_0_1_4" nphases=4 basefreq=60 r1=1.0145 x1=0.3290 units=km normamps=193.70

New "Linecode.BT_BT107_7_0_1_1" nphases=1 basefreq=60 r1=1.0145 x1=0.3290 units=km normamps=193.70
New "Linecode.BT_BT107_7_0_1_2" nphases=2 basefreq=60 r1=1.0145 x1=0.3290 units=km normamps=193.70
New "Linecode.BT_BT107_7_0_1_3" nphases=3 basefreq=60 r1=1.0145 x1=0.3290 units=km normamps=193.70
New "Linecode.BT_BT107_7_0_1_4" nphases=4 basefreq=60 r1=1.0145 x1=0.3290 units=km normamps=193.70

New "Linecode.BT_BT108_5_0_1_1" nphases=1 basefreq=60 r1=0.6375 x1=0.3243 units=km normamps=261.30
New "Linecode.BT_BT108_5_0_1_2" nphases=2 basefreq=60 r1=0.6375 x1=0.3243 units=km normamps=261.30
New "Linecode.BT_BT108_5_0_1_3" nphases=3 basefreq=60 r1=0.6375 x1=0.3243 units=km normamps=261.30
New "Linecode.BT_BT108_5_0_1_4" nphases=4 basefreq=60 r1=0.6375 x1=0.3243 units=km normamps=261.30

New "Linecode.BT_BT108_7_0_1_1" nphases=1 basefreq=60 r1=0.6375 x1=0.3243 units=km normamps=261.30
New "Linecode.BT_BT108_7_0_1_2" nphases=2 basefreq=60 r1=0.6375 x1=0.3243 units=km normamps=261.30
New "Linecode.BT_BT108_7_0_1_3" nphases=3 basefreq=60 r1=0.6375 x1=0.3243 units=km normamps=261.30
New "Linecode.BT_BT108_7_0_1_4" nphases=4 basefreq=60 r1=0.6375 x1=0.3243 units=km normamps=261.30

New "Linecode.BT_BT109_5_0_1_1" nphases=1 basefreq=60 r1=0.4494 x1=0.3154 units=km normamps=299.00
New "Linecode.BT_BT109_5_0_1_2" nphases=2 basefreq=60 r1=0.4494 x1=0.3154 units=km normamps=299.00
New "Linecode.BT_BT109_5_0_1_3" nphases=3 basefreq=60 r1=0.4494 x1=0.3154 units=km normamps=299.00
New "Linecode.BT_BT109_5_0_1_4" nphases=4 basefreq=60 r1=0.4494 x1=0.3154 units=km normamps=299.00

New "Linecode.BT_BT109_7_0_1_1" nphases=1 basefreq=60 r1=0.4494 x1=0.3154 units=km normamps=299.00
New "Linecode.BT_BT109_7_0_1_2" nphases=2 basefreq=60 r1=0.4494 x1=0.3154 units=km normamps=299.00
New "Linecode.BT_BT109_7_0_1_3" nphases=3 basefreq=60 r1=0.4494 x1=0.3154 units=km normamps=299.00
New "Linecode.BT_BT109_7_0_1_4" nphases=4 basefreq=60 r1=0.4494 x1=0.3154 units=km normamps=299.00

New "Linecode.BT_BT110_7_0_1_1" nphases=1 basefreq=60 r1=0.4010 x1=0.2989 units=km normamps=351.00
New "Linecode.BT_BT110_7_0_1_2" nphases=2 basefreq=60 r1=0.4010 x1=0.2989 units=km normamps=351.00
New "Linecode.BT_BT110_7_0_1_3" nphases=3 basefreq=60 r1=0.4010 x1=0.2989 units=km normamps=351.00
New "Linecode.BT_BT110_7_0_1_4" nphases=4 basefreq=60 r1=0.4010 x1=0.2989 units=km normamps=351.00

New "Linecode.BT_BT111_5_0_1_1" nphases=1 basefreq=60 r1=0.3184 x1=0.2979 units=km normamps=408.20
New "Linecode.BT_BT111_5_0_1_2" nphases=2 basefreq=60 r1=0.3184 x1=0.2979 units=km normamps=408.20
New "Linecode.BT_BT111_5_0_1_3" nphases=3 basefreq=60 r1=0.3184 x1=0.2979 units=km normamps=408.20
New "Linecode.BT_BT111_5_0_1_4" nphases=4 basefreq=60 r1=0.3184 x1=0.2979 units=km normamps=408.20

New "Linecode.BT_BT111_7_0_1_1" nphases=1 basefreq=60 r1=0.3184 x1=0.2979 units=km normamps=408.20
New "Linecode.BT_BT111_7_0_1_2" nphases=2 basefreq=60 r1=0.3184 x1=0.2979 units=km normamps=408.20
New "Linecode.BT_BT111_7_0_1_3" nphases=3 basefreq=60 r1=0.3184 x1=0.2979 units=km normamps=408.20
New "Linecode.BT_BT111_7_0_1_4" nphases=4 basefreq=60 r1=0.3184 x1=0.2979 units=km normamps=408.20

New "Linecode.BT_BT201_7_0_1_1" nphases=1 basefreq=60 r1=6.4147 x1=0.4042 units=km normamps=32.50
New "Linecode.BT_BT201_7_0_1_2" nphases=2 basefreq=60 r1=6.4147 x1=0.4042 units=km normamps=32.50
New "Linecode.BT_BT201_7_0_1_3" nphases=3 basefreq=60 r1=6.4147 x1=0.4042 units=km normamps=32.50
New "Linecode.BT_BT201_7_0_1_4" nphases=4 basefreq=60 r1=6.4147 x1=0.4042 units=km normamps=32.50

New "Linecode.BT_BT202_7_0_1_1" nphases=1 basefreq=60 r1=4.0262 x1=0.4035 units=km normamps=42.90
New "Linecode.BT_BT202_7_0_1_2" nphases=2 basefreq=60 r1=4.0262 x1=0.4035 units=km normamps=42.90
New "Linecode.BT_BT202_7_0_1_3" nphases=3 basefreq=60 r1=4.0262 x1=0.4035 units=km normamps=42.90
New "Linecode.BT_BT202_7_0_1_4" nphases=4 basefreq=60 r1=4.0262 x1=0.4035 units=km normamps=42.90

New "Linecode.BT_BT203_7_0_1_1" nphases=1 basefreq=60 r1=2.1152 x1=0.3622 units=km normamps=106.60
New "Linecode.BT_BT203_7_0_1_2" nphases=2 basefreq=60 r1=2.1152 x1=0.3622 units=km normamps=106.60
New "Linecode.BT_BT203_7_0_1_3" nphases=3 basefreq=60 r1=2.1152 x1=0.3622 units=km normamps=106.60
New "Linecode.BT_BT203_7_0_1_4" nphases=4 basefreq=60 r1=2.1152 x1=0.3622 units=km normamps=106.60

New "Linecode.BT_BT204_7_0_1_1" nphases=1 basefreq=60 r1=2.6474 x1=0.4027 units=km normamps=109.20
New "Linecode.BT_BT204_7_0_1_2" nphases=2 basefreq=60 r1=2.6474 x1=0.4027 units=km normamps=109.20
New "Linecode.BT_BT204_7_0_1_3" nphases=3 basefreq=60 r1=2.6474 x1=0.4027 units=km normamps=109.20
New "Linecode.BT_BT204_7_0_1_4" nphases=4 basefreq=60 r1=2.6474 x1=0.4027 units=km normamps=109.20

New "Linecode.BT_BT205_7_0_1_1" nphases=1 basefreq=60 r1=1.3769 x1=0.3961 units=km normamps=131.30
New "Linecode.BT_BT205_7_0_1_2" nphases=2 basefreq=60 r1=1.3769 x1=0.3961 units=km normamps=131.30
New "Linecode.BT_BT205_7_0_1_3" nphases=3 basefreq=60 r1=1.3769 x1=0.3961 units=km normamps=131.30
New "Linecode.BT_BT205_7_0_1_4" nphases=4 basefreq=60 r1=1.3769 x1=0.3961 units=km normamps=131.30

New "Linecode.BT_BT206_5_0_1_1" nphases=1 basefreq=60 r1=1.6397 x1=0.3465 units=km normamps=145.60
New "Linecode.BT_BT206_5_0_1_2" nphases=2 basefreq=60 r1=1.6397 x1=0.3465 units=km normamps=145.60
New "Linecode.BT_BT206_5_0_1_3" nphases=3 basefreq=60 r1=1.6397 x1=0.3465 units=km normamps=145.60
New "Linecode.BT_BT206_5_0_1_4" nphases=4 basefreq=60 r1=1.6397 x1=0.3465 units=km normamps=145.60

New "Linecode.BT_BT206_7_0_1_1" nphases=1 basefreq=60 r1=1.6397 x1=0.3465 units=km normamps=145.60
New "Linecode.BT_BT206_7_0_1_2" nphases=2 basefreq=60 r1=1.6397 x1=0.3465 units=km normamps=145.60
New "Linecode.BT_BT206_7_0_1_3" nphases=3 basefreq=60 r1=1.6397 x1=0.3465 units=km normamps=145.60
New "Linecode.BT_BT206_7_0_1_4" nphases=4 basefreq=60 r1=1.6397 x1=0.3465 units=km normamps=145.60

New "Linecode.BT_BT207_5_0_1_1" nphases=1 basefreq=60 r1=1.0323 x1=0.3844 units=km normamps=196.30
New "Linecode.BT_BT207_5_0_1_2" nphases=2 basefreq=60 r1=1.0323 x1=0.3844 units=km normamps=196.30
New "Linecode.BT_BT207_5_0_1_3" nphases=3 basefreq=60 r1=1.0323 x1=0.3844 units=km normamps=196.30
New "Linecode.BT_BT207_5_0_1_4" nphases=4 basefreq=60 r1=1.0323 x1=0.3844 units=km normamps=196.30

New "Linecode.BT_BT207_7_0_1_1" nphases=1 basefreq=60 r1=1.0323 x1=0.3844 units=km normamps=196.30
New "Linecode.BT_BT207_7_0_1_2" nphases=2 basefreq=60 r1=1.0323 x1=0.3844 units=km normamps=196.30
New "Linecode.BT_BT207_7_0_1_3" nphases=3 basefreq=60 r1=1.0323 x1=0.3844 units=km normamps=196.30
New "Linecode.BT_BT207_7_0_1_4" nphases=4 basefreq=60 r1=1.0323 x1=0.3844 units=km normamps=196.30

New "Linecode.BT_BT208_5_0_1_1" nphases=1 basefreq=60 r1=0.6500 x1=0.3074 units=km normamps=263.90